
---------- Begin Simulation Statistics ----------
sim_seconds                                  0.015339                       # Number of seconds simulated
sim_ticks                                 15339023000                       # Number of ticks simulated
final_tick                               17327219180500                       # Number of ticks from beginning of simulation (restored from checkpoints and never reset)
sim_freq                                 1000000000000                       # Frequency of simulated ticks
host_inst_rate                              150254944                       # Simulator instruction rate (inst/s)
host_op_rate                                151077427                       # Simulator op (including micro ops) rate (op/s)
host_tick_rate                             1768901604                       # Simulator tick rate (ticks/s)
host_mem_usage                               17281192                       # Number of bytes of host memory used
host_seconds                                     8.67                       # Real time elapsed on the host
sim_insts                                  1302927265                       # Number of instructions simulated
sim_ops                                    1310062939                       # Number of ops (including micro ops) simulated
system.voltage_domain.voltage                       1                       # Voltage in Volts
system.clk_domain.clock                          1000                       # Clock period in ticks
system.mem_ctrls0.pwrStateResidencyTicks::UNDEFINED 17327219180500                       # Cumulative time (in ticks) in various power states
system.mem_ctrls0.bytes_read::detailed_cpu.dtb.walker         3664                       # Number of bytes read from this memory
system.mem_ctrls0.bytes_read::detailed_cpu.itb.walker          192                       # Number of bytes read from this memory
system.mem_ctrls0.bytes_read::detailed_cpu.inst       444416                       # Number of bytes read from this memory
system.mem_ctrls0.bytes_read::detailed_cpu.data       563520                       # Number of bytes read from this memory
system.mem_ctrls0.bytes_read::total           1011792                       # Number of bytes read from this memory
system.mem_ctrls0.bytes_inst_read::detailed_cpu.inst       444416                       # Number of instructions bytes read from this memory
system.mem_ctrls0.bytes_inst_read::total       444416                       # Number of instructions bytes read from this memory
system.mem_ctrls0.bytes_written::writebacks       509056                       # Number of bytes written to this memory
system.mem_ctrls0.bytes_written::detailed_cpu.dtb.walker            8                       # Number of bytes written to this memory
system.mem_ctrls0.bytes_written::total         509064                       # Number of bytes written to this memory
system.mem_ctrls0.num_reads::detailed_cpu.dtb.walker          115                       # Number of read requests responded to by this memory
system.mem_ctrls0.num_reads::detailed_cpu.itb.walker            3                       # Number of read requests responded to by this memory
system.mem_ctrls0.num_reads::detailed_cpu.inst         6944                       # Number of read requests responded to by this memory
system.mem_ctrls0.num_reads::detailed_cpu.data         8805                       # Number of read requests responded to by this memory
system.mem_ctrls0.num_reads::total              15867                       # Number of read requests responded to by this memory
system.mem_ctrls0.num_writes::writebacks         7954                       # Number of write requests responded to by this memory
system.mem_ctrls0.num_writes::detailed_cpu.dtb.walker            1                       # Number of write requests responded to by this memory
system.mem_ctrls0.num_writes::total              7955                       # Number of write requests responded to by this memory
system.mem_ctrls0.bw_read::detailed_cpu.dtb.walker       238868                       # Total read bandwidth from this memory (bytes/s)
system.mem_ctrls0.bw_read::detailed_cpu.itb.walker        12517                       # Total read bandwidth from this memory (bytes/s)
system.mem_ctrls0.bw_read::detailed_cpu.inst     28972901                       # Total read bandwidth from this memory (bytes/s)
system.mem_ctrls0.bw_read::detailed_cpu.data     36737672                       # Total read bandwidth from this memory (bytes/s)
system.mem_ctrls0.bw_read::total             65961959                       # Total read bandwidth from this memory (bytes/s)
system.mem_ctrls0.bw_inst_read::detailed_cpu.inst     28972901                       # Instruction read bandwidth from this memory (bytes/s)
system.mem_ctrls0.bw_inst_read::total        28972901                       # Instruction read bandwidth from this memory (bytes/s)
system.mem_ctrls0.bw_write::writebacks       33186990                       # Write bandwidth from this memory (bytes/s)
system.mem_ctrls0.bw_write::detailed_cpu.dtb.walker          522                       # Write bandwidth from this memory (bytes/s)
system.mem_ctrls0.bw_write::total            33187511                       # Write bandwidth from this memory (bytes/s)
system.mem_ctrls0.bw_total::writebacks       33186990                       # Total bandwidth to/from this memory (bytes/s)
system.mem_ctrls0.bw_total::detailed_cpu.dtb.walker       239389                       # Total bandwidth to/from this memory (bytes/s)
system.mem_ctrls0.bw_total::detailed_cpu.itb.walker        12517                       # Total bandwidth to/from this memory (bytes/s)
system.mem_ctrls0.bw_total::detailed_cpu.inst     28972901                       # Total bandwidth to/from this memory (bytes/s)
system.mem_ctrls0.bw_total::detailed_cpu.data     36737672                       # Total bandwidth to/from this memory (bytes/s)
system.mem_ctrls0.bw_total::total            99149470                       # Total bandwidth to/from this memory (bytes/s)
system.mem_ctrls0.readReqs                      15867                       # Number of read requests accepted
system.mem_ctrls0.writeReqs                      7955                       # Number of write requests accepted
system.mem_ctrls0.readBursts                    15867                       # Number of DRAM read bursts, including those serviced by the write queue
system.mem_ctrls0.writeBursts                    7955                       # Number of DRAM write bursts, including those merged in the write queue
system.mem_ctrls0.bytesReadDRAM               1009280                       # Total number of bytes read from DRAM
system.mem_ctrls0.bytesReadWrQ                   6208                       # Total number of bytes read from write queue
system.mem_ctrls0.bytesWritten                 508032                       # Total number of bytes written to DRAM
system.mem_ctrls0.bytesReadSys                1011792                       # Total read bytes from the system interface side
system.mem_ctrls0.bytesWrittenSys              509064                       # Total written bytes from the system interface side
system.mem_ctrls0.servicedByWrQ                    97                       # Number of DRAM read bursts serviced by the write queue
system.mem_ctrls0.mergedWrBursts                    0                       # Number of DRAM write bursts merged with an existing one
system.mem_ctrls0.neitherReadNorWriteReqs            0                       # Number of requests that are neither read nor write
system.mem_ctrls0.perBankRdBursts::0             1298                       # Per bank write bursts
system.mem_ctrls0.perBankRdBursts::1             1341                       # Per bank write bursts
system.mem_ctrls0.perBankRdBursts::2             1039                       # Per bank write bursts
system.mem_ctrls0.perBankRdBursts::3             1186                       # Per bank write bursts
system.mem_ctrls0.perBankRdBursts::4             1027                       # Per bank write bursts
system.mem_ctrls0.perBankRdBursts::5             1032                       # Per bank write bursts
system.mem_ctrls0.perBankRdBursts::6              793                       # Per bank write bursts
system.mem_ctrls0.perBankRdBursts::7              966                       # Per bank write bursts
system.mem_ctrls0.perBankRdBursts::8              875                       # Per bank write bursts
system.mem_ctrls0.perBankRdBursts::9              814                       # Per bank write bursts
system.mem_ctrls0.perBankRdBursts::10             800                       # Per bank write bursts
system.mem_ctrls0.perBankRdBursts::11             830                       # Per bank write bursts
system.mem_ctrls0.perBankRdBursts::12             955                       # Per bank write bursts
system.mem_ctrls0.perBankRdBursts::13             790                       # Per bank write bursts
system.mem_ctrls0.perBankRdBursts::14            1092                       # Per bank write bursts
system.mem_ctrls0.perBankRdBursts::15             932                       # Per bank write bursts
system.mem_ctrls0.perBankWrBursts::0              516                       # Per bank write bursts
system.mem_ctrls0.perBankWrBursts::1              512                       # Per bank write bursts
system.mem_ctrls0.perBankWrBursts::2              513                       # Per bank write bursts
system.mem_ctrls0.perBankWrBursts::3              513                       # Per bank write bursts
system.mem_ctrls0.perBankWrBursts::4              516                       # Per bank write bursts
system.mem_ctrls0.perBankWrBursts::5              512                       # Per bank write bursts
system.mem_ctrls0.perBankWrBursts::6              489                       # Per bank write bursts
system.mem_ctrls0.perBankWrBursts::7              385                       # Per bank write bursts
system.mem_ctrls0.perBankWrBursts::8              513                       # Per bank write bursts
system.mem_ctrls0.perBankWrBursts::9              512                       # Per bank write bursts
system.mem_ctrls0.perBankWrBursts::10             513                       # Per bank write bursts
system.mem_ctrls0.perBankWrBursts::11             512                       # Per bank write bursts
system.mem_ctrls0.perBankWrBursts::12             524                       # Per bank write bursts
system.mem_ctrls0.perBankWrBursts::13             512                       # Per bank write bursts
system.mem_ctrls0.perBankWrBursts::14             512                       # Per bank write bursts
system.mem_ctrls0.perBankWrBursts::15             384                       # Per bank write bursts
system.mem_ctrls0.numRdRetry                        0                       # Number of times read queue was full causing retry
system.mem_ctrls0.numWrRetry                        5                       # Number of times write queue was full causing retry
system.mem_ctrls0.totGap                  15260178500                       # Total gap between requests
system.mem_ctrls0.readPktSize::0                    0                       # Read request sizes (log2)
system.mem_ctrls0.readPktSize::1                    0                       # Read request sizes (log2)
system.mem_ctrls0.readPktSize::2                    0                       # Read request sizes (log2)
system.mem_ctrls0.readPktSize::3                   66                       # Read request sizes (log2)
system.mem_ctrls0.readPktSize::4                    0                       # Read request sizes (log2)
system.mem_ctrls0.readPktSize::5                    0                       # Read request sizes (log2)
system.mem_ctrls0.readPktSize::6                15801                       # Read request sizes (log2)
system.mem_ctrls0.writePktSize::0                   0                       # Write request sizes (log2)
system.mem_ctrls0.writePktSize::1                   0                       # Write request sizes (log2)
system.mem_ctrls0.writePktSize::2                   0                       # Write request sizes (log2)
system.mem_ctrls0.writePktSize::3                   1                       # Write request sizes (log2)
system.mem_ctrls0.writePktSize::4                   0                       # Write request sizes (log2)
system.mem_ctrls0.writePktSize::5                   0                       # Write request sizes (log2)
system.mem_ctrls0.writePktSize::6                7954                       # Write request sizes (log2)
system.mem_ctrls0.rdQLenPdf::0                  15770                       # What read queue length does an incoming req see
system.mem_ctrls0.rdQLenPdf::1                      0                       # What read queue length does an incoming req see
system.mem_ctrls0.rdQLenPdf::2                      0                       # What read queue length does an incoming req see
system.mem_ctrls0.rdQLenPdf::3                      0                       # What read queue length does an incoming req see
system.mem_ctrls0.rdQLenPdf::4                      0                       # What read queue length does an incoming req see
system.mem_ctrls0.rdQLenPdf::5                      0                       # What read queue length does an incoming req see
system.mem_ctrls0.rdQLenPdf::6                      0                       # What read queue length does an incoming req see
system.mem_ctrls0.rdQLenPdf::7                      0                       # What read queue length does an incoming req see
system.mem_ctrls0.rdQLenPdf::8                      0                       # What read queue length does an incoming req see
system.mem_ctrls0.rdQLenPdf::9                      0                       # What read queue length does an incoming req see
system.mem_ctrls0.rdQLenPdf::10                     0                       # What read queue length does an incoming req see
system.mem_ctrls0.rdQLenPdf::11                     0                       # What read queue length does an incoming req see
system.mem_ctrls0.rdQLenPdf::12                     0                       # What read queue length does an incoming req see
system.mem_ctrls0.rdQLenPdf::13                     0                       # What read queue length does an incoming req see
system.mem_ctrls0.rdQLenPdf::14                     0                       # What read queue length does an incoming req see
system.mem_ctrls0.rdQLenPdf::15                     0                       # What read queue length does an incoming req see
system.mem_ctrls0.rdQLenPdf::16                     0                       # What read queue length does an incoming req see
system.mem_ctrls0.rdQLenPdf::17                     0                       # What read queue length does an incoming req see
system.mem_ctrls0.rdQLenPdf::18                     0                       # What read queue length does an incoming req see
system.mem_ctrls0.rdQLenPdf::19                     0                       # What read queue length does an incoming req see
system.mem_ctrls0.rdQLenPdf::20                     0                       # What read queue length does an incoming req see
system.mem_ctrls0.rdQLenPdf::21                     0                       # What read queue length does an incoming req see
system.mem_ctrls0.rdQLenPdf::22                     0                       # What read queue length does an incoming req see
system.mem_ctrls0.rdQLenPdf::23                     0                       # What read queue length does an incoming req see
system.mem_ctrls0.rdQLenPdf::24                     0                       # What read queue length does an incoming req see
system.mem_ctrls0.rdQLenPdf::25                     0                       # What read queue length does an incoming req see
system.mem_ctrls0.rdQLenPdf::26                     0                       # What read queue length does an incoming req see
system.mem_ctrls0.rdQLenPdf::27                     0                       # What read queue length does an incoming req see
system.mem_ctrls0.rdQLenPdf::28                     0                       # What read queue length does an incoming req see
system.mem_ctrls0.rdQLenPdf::29                     0                       # What read queue length does an incoming req see
system.mem_ctrls0.rdQLenPdf::30                     0                       # What read queue length does an incoming req see
system.mem_ctrls0.rdQLenPdf::31                     0                       # What read queue length does an incoming req see
system.mem_ctrls0.wrQLenPdf::0                      1                       # What write queue length does an incoming req see
system.mem_ctrls0.wrQLenPdf::1                      1                       # What write queue length does an incoming req see
system.mem_ctrls0.wrQLenPdf::2                      1                       # What write queue length does an incoming req see
system.mem_ctrls0.wrQLenPdf::3                      1                       # What write queue length does an incoming req see
system.mem_ctrls0.wrQLenPdf::4                      1                       # What write queue length does an incoming req see
system.mem_ctrls0.wrQLenPdf::5                      1                       # What write queue length does an incoming req see
system.mem_ctrls0.wrQLenPdf::6                      1                       # What write queue length does an incoming req see
system.mem_ctrls0.wrQLenPdf::7                      1                       # What write queue length does an incoming req see
system.mem_ctrls0.wrQLenPdf::8                      1                       # What write queue length does an incoming req see
system.mem_ctrls0.wrQLenPdf::9                      1                       # What write queue length does an incoming req see
system.mem_ctrls0.wrQLenPdf::10                     1                       # What write queue length does an incoming req see
system.mem_ctrls0.wrQLenPdf::11                     1                       # What write queue length does an incoming req see
system.mem_ctrls0.wrQLenPdf::12                     1                       # What write queue length does an incoming req see
system.mem_ctrls0.wrQLenPdf::13                     1                       # What write queue length does an incoming req see
system.mem_ctrls0.wrQLenPdf::14                     1                       # What write queue length does an incoming req see
system.mem_ctrls0.wrQLenPdf::15                   161                       # What write queue length does an incoming req see
system.mem_ctrls0.wrQLenPdf::16                   389                       # What write queue length does an incoming req see
system.mem_ctrls0.wrQLenPdf::17                   229                       # What write queue length does an incoming req see
system.mem_ctrls0.wrQLenPdf::18                   230                       # What write queue length does an incoming req see
system.mem_ctrls0.wrQLenPdf::19                   267                       # What write queue length does an incoming req see
system.mem_ctrls0.wrQLenPdf::20                   197                       # What write queue length does an incoming req see
system.mem_ctrls0.wrQLenPdf::21                   293                       # What write queue length does an incoming req see
system.mem_ctrls0.wrQLenPdf::22                   352                       # What write queue length does an incoming req see
system.mem_ctrls0.wrQLenPdf::23                   632                       # What write queue length does an incoming req see
system.mem_ctrls0.wrQLenPdf::24                   503                       # What write queue length does an incoming req see
system.mem_ctrls0.wrQLenPdf::25                   902                       # What write queue length does an incoming req see
system.mem_ctrls0.wrQLenPdf::26                   947                       # What write queue length does an incoming req see
system.mem_ctrls0.wrQLenPdf::27                   503                       # What write queue length does an incoming req see
system.mem_ctrls0.wrQLenPdf::28                   341                       # What write queue length does an incoming req see
system.mem_ctrls0.wrQLenPdf::29                   341                       # What write queue length does an incoming req see
system.mem_ctrls0.wrQLenPdf::30                   256                       # What write queue length does an incoming req see
system.mem_ctrls0.wrQLenPdf::31                   208                       # What write queue length does an incoming req see
system.mem_ctrls0.wrQLenPdf::32                   215                       # What write queue length does an incoming req see
system.mem_ctrls0.wrQLenPdf::33                    45                       # What write queue length does an incoming req see
system.mem_ctrls0.wrQLenPdf::34                    43                       # What write queue length does an incoming req see
system.mem_ctrls0.wrQLenPdf::35                    47                       # What write queue length does an incoming req see
system.mem_ctrls0.wrQLenPdf::36                    37                       # What write queue length does an incoming req see
system.mem_ctrls0.wrQLenPdf::37                    19                       # What write queue length does an incoming req see
system.mem_ctrls0.wrQLenPdf::38                    33                       # What write queue length does an incoming req see
system.mem_ctrls0.wrQLenPdf::39                    23                       # What write queue length does an incoming req see
system.mem_ctrls0.wrQLenPdf::40                    21                       # What write queue length does an incoming req see
system.mem_ctrls0.wrQLenPdf::41                    23                       # What write queue length does an incoming req see
system.mem_ctrls0.wrQLenPdf::42                    46                       # What write queue length does an incoming req see
system.mem_ctrls0.wrQLenPdf::43                    60                       # What write queue length does an incoming req see
system.mem_ctrls0.wrQLenPdf::44                    34                       # What write queue length does an incoming req see
system.mem_ctrls0.wrQLenPdf::45                    34                       # What write queue length does an incoming req see
system.mem_ctrls0.wrQLenPdf::46                    38                       # What write queue length does an incoming req see
system.mem_ctrls0.wrQLenPdf::47                    34                       # What write queue length does an incoming req see
system.mem_ctrls0.wrQLenPdf::48                    30                       # What write queue length does an incoming req see
system.mem_ctrls0.wrQLenPdf::49                    25                       # What write queue length does an incoming req see
system.mem_ctrls0.wrQLenPdf::50                    26                       # What write queue length does an incoming req see
system.mem_ctrls0.wrQLenPdf::51                    32                       # What write queue length does an incoming req see
system.mem_ctrls0.wrQLenPdf::52                    32                       # What write queue length does an incoming req see
system.mem_ctrls0.wrQLenPdf::53                    25                       # What write queue length does an incoming req see
system.mem_ctrls0.wrQLenPdf::54                    22                       # What write queue length does an incoming req see
system.mem_ctrls0.wrQLenPdf::55                    29                       # What write queue length does an incoming req see
system.mem_ctrls0.wrQLenPdf::56                    37                       # What write queue length does an incoming req see
system.mem_ctrls0.wrQLenPdf::57                    37                       # What write queue length does an incoming req see
system.mem_ctrls0.wrQLenPdf::58                    21                       # What write queue length does an incoming req see
system.mem_ctrls0.wrQLenPdf::59                    39                       # What write queue length does an incoming req see
system.mem_ctrls0.wrQLenPdf::60                    21                       # What write queue length does an incoming req see
system.mem_ctrls0.wrQLenPdf::61                    22                       # What write queue length does an incoming req see
system.mem_ctrls0.wrQLenPdf::62                    29                       # What write queue length does an incoming req see
system.mem_ctrls0.wrQLenPdf::63                    10                       # What write queue length does an incoming req see
system.mem_ctrls0.bytesPerActivate::samples         3508                       # Bytes accessed per row activation
system.mem_ctrls0.bytesPerActivate::mean   432.529076                       # Bytes accessed per row activation
system.mem_ctrls0.bytesPerActivate::gmean   257.884409                       # Bytes accessed per row activation
system.mem_ctrls0.bytesPerActivate::stdev   386.433140                       # Bytes accessed per row activation
system.mem_ctrls0.bytesPerActivate::0-127          916     26.11%     26.11% # Bytes accessed per row activation
system.mem_ctrls0.bytesPerActivate::128-255          808     23.03%     49.14% # Bytes accessed per row activation
system.mem_ctrls0.bytesPerActivate::256-383          299      8.52%     57.67% # Bytes accessed per row activation
system.mem_ctrls0.bytesPerActivate::384-511          166      4.73%     62.40% # Bytes accessed per row activation
system.mem_ctrls0.bytesPerActivate::512-639          151      4.30%     66.70% # Bytes accessed per row activation
system.mem_ctrls0.bytesPerActivate::640-767          230      6.56%     73.26% # Bytes accessed per row activation
system.mem_ctrls0.bytesPerActivate::768-895           43      1.23%     74.49% # Bytes accessed per row activation
system.mem_ctrls0.bytesPerActivate::896-1023           55      1.57%     76.05% # Bytes accessed per row activation
system.mem_ctrls0.bytesPerActivate::1024-1151          840     23.95%    100.00% # Bytes accessed per row activation
system.mem_ctrls0.bytesPerActivate::total         3508                       # Bytes accessed per row activation
system.mem_ctrls0.rdPerTurnAround::samples          180                       # Reads before turning the bus around for writes
system.mem_ctrls0.rdPerTurnAround::mean     86.588889                       # Reads before turning the bus around for writes
system.mem_ctrls0.rdPerTurnAround::stdev   512.951399                       # Reads before turning the bus around for writes
system.mem_ctrls0.rdPerTurnAround::0-255          174     96.67%     96.67% # Reads before turning the bus around for writes
system.mem_ctrls0.rdPerTurnAround::1280-1535            1      0.56%     97.22% # Reads before turning the bus around for writes
system.mem_ctrls0.rdPerTurnAround::1536-1791            1      0.56%     97.78% # Reads before turning the bus around for writes
system.mem_ctrls0.rdPerTurnAround::2048-2303            2      1.11%     98.89% # Reads before turning the bus around for writes
system.mem_ctrls0.rdPerTurnAround::3328-3583            1      0.56%     99.44% # Reads before turning the bus around for writes
system.mem_ctrls0.rdPerTurnAround::4608-4863            1      0.56%    100.00% # Reads before turning the bus around for writes
system.mem_ctrls0.rdPerTurnAround::total          180                       # Reads before turning the bus around for writes
system.mem_ctrls0.wrPerTurnAround::samples          180                       # Writes before turning the bus around for reads
system.mem_ctrls0.wrPerTurnAround::mean     44.100000                       # Writes before turning the bus around for reads
system.mem_ctrls0.wrPerTurnAround::gmean    38.879620                       # Writes before turning the bus around for reads
system.mem_ctrls0.wrPerTurnAround::stdev    25.349204                       # Writes before turning the bus around for reads
system.mem_ctrls0.wrPerTurnAround::16-19           17      9.44%      9.44% # Writes before turning the bus around for reads
system.mem_ctrls0.wrPerTurnAround::20-23            4      2.22%     11.67% # Writes before turning the bus around for reads
system.mem_ctrls0.wrPerTurnAround::24-27            3      1.67%     13.33% # Writes before turning the bus around for reads
system.mem_ctrls0.wrPerTurnAround::28-31            7      3.89%     17.22% # Writes before turning the bus around for reads
system.mem_ctrls0.wrPerTurnAround::32-35           82     45.56%     62.78% # Writes before turning the bus around for reads
system.mem_ctrls0.wrPerTurnAround::36-39            4      2.22%     65.00% # Writes before turning the bus around for reads
system.mem_ctrls0.wrPerTurnAround::40-43            1      0.56%     65.56% # Writes before turning the bus around for reads
system.mem_ctrls0.wrPerTurnAround::44-47            2      1.11%     66.67% # Writes before turning the bus around for reads
system.mem_ctrls0.wrPerTurnAround::60-63            3      1.67%     68.33% # Writes before turning the bus around for reads
system.mem_ctrls0.wrPerTurnAround::64-67           46     25.56%     93.89% # Writes before turning the bus around for reads
system.mem_ctrls0.wrPerTurnAround::68-71            1      0.56%     94.44% # Writes before turning the bus around for reads
system.mem_ctrls0.wrPerTurnAround::72-75            1      0.56%     95.00% # Writes before turning the bus around for reads
system.mem_ctrls0.wrPerTurnAround::80-83            1      0.56%     95.56% # Writes before turning the bus around for reads
system.mem_ctrls0.wrPerTurnAround::84-87            2      1.11%     96.67% # Writes before turning the bus around for reads
system.mem_ctrls0.wrPerTurnAround::96-99            1      0.56%     97.22% # Writes before turning the bus around for reads
system.mem_ctrls0.wrPerTurnAround::128-131            1      0.56%     97.78% # Writes before turning the bus around for reads
system.mem_ctrls0.wrPerTurnAround::140-143            3      1.67%     99.44% # Writes before turning the bus around for reads
system.mem_ctrls0.wrPerTurnAround::192-195            1      0.56%    100.00% # Writes before turning the bus around for reads
system.mem_ctrls0.wrPerTurnAround::total          180                       # Writes before turning the bus around for reads
system.mem_ctrls0.totQLat                   350333250                       # Total ticks spent queuing
system.mem_ctrls0.totMemAccLat              646020750                       # Total ticks spent from burst creation until serviced by the DRAM
system.mem_ctrls0.totBusLat                  78850000                       # Total ticks spent in databus transfers
system.mem_ctrls0.avgQLat                    22215.17                       # Average queueing delay per DRAM burst
system.mem_ctrls0.avgBusLat                   5000.00                       # Average bus latency per DRAM burst
system.mem_ctrls0.avgMemAccLat               40965.17                       # Average memory access latency per DRAM burst
system.mem_ctrls0.avgRdBW                       65.80                       # Average DRAM read bandwidth in MiByte/s
system.mem_ctrls0.avgWrBW                       33.12                       # Average achieved write bandwidth in MiByte/s
system.mem_ctrls0.avgRdBWSys                    65.96                       # Average system read bandwidth in MiByte/s
system.mem_ctrls0.avgWrBWSys                    33.19                       # Average system write bandwidth in MiByte/s
system.mem_ctrls0.peakBW                     12800.00                       # Theoretical peak bandwidth in MiByte/s
system.mem_ctrls0.busUtil                        0.77                       # Data bus utilization in percentage
system.mem_ctrls0.busUtilRead                    0.51                       # Data bus utilization in percentage for reads
system.mem_ctrls0.busUtilWrite                   0.26                       # Data bus utilization in percentage for writes
system.mem_ctrls0.avgRdQLen                      1.00                       # Average read queue length when enqueuing
system.mem_ctrls0.avgWrQLen                     21.98                       # Average write queue length when enqueuing
system.mem_ctrls0.readRowHits                   12785                       # Number of row buffer hits during reads
system.mem_ctrls0.writeRowHits                   7415                       # Number of row buffer hits during writes
system.mem_ctrls0.readRowHitRate                81.07                       # Row buffer hit rate for reads
system.mem_ctrls0.writeRowHitRate               93.21                       # Row buffer hit rate for writes
system.mem_ctrls0.avgGap                    640591.83                       # Average gap between requests
system.mem_ctrls0.pageHitRate                   85.14                       # Row buffer hit rate, read and write combined
system.mem_ctrls0_0.actEnergy                14187180                       # Energy for activate commands per rank (pJ)
system.mem_ctrls0_0.preEnergy                 7540665                       # Energy for precharge commands per rank (pJ)
system.mem_ctrls0_0.readEnergy               61989480                       # Energy for read commands per rank (pJ)
system.mem_ctrls0_0.writeEnergy              20650320                       # Energy for write commands per rank (pJ)
system.mem_ctrls0_0.refreshEnergy        535351440.000000                       # Energy for refresh commands per rank (pJ)
system.mem_ctrls0_0.actBackEnergy           243488040                       # Energy for active background per rank (pJ)
system.mem_ctrls0_0.preBackEnergy            27510720                       # Energy for precharge background per rank (pJ)
system.mem_ctrls0_0.actPowerDownEnergy     1525194030                       # Energy for active power-down per rank (pJ)
system.mem_ctrls0_0.prePowerDownEnergy      625111200                       # Energy for precharge power-down per rank (pJ)
system.mem_ctrls0_0.selfRefreshEnergy      2434791480                       # Energy for self refresh per rank (pJ)
system.mem_ctrls0_0.totalEnergy            5495914185                       # Total energy per rank (pJ)
system.mem_ctrls0_0.averagePower           358.296235                       # Core power per rank (mW)
system.mem_ctrls0_0.totalIdleTime         14669054750                       # Total Idle time Per DRAM Rank
system.mem_ctrls0_0.memoryStateTime::IDLE     48109250                       # Time in different power states
system.mem_ctrls0_0.memoryStateTime::REF    227480000                       # Time in different power states
system.mem_ctrls0_0.memoryStateTime::SREF   9760474750                       # Time in different power states
system.mem_ctrls0_0.memoryStateTime::PRE_PDN   1627891000                       # Time in different power states
system.mem_ctrls0_0.memoryStateTime::ACT    330331000                       # Time in different power states
system.mem_ctrls0_0.memoryStateTime::ACT_PDN   3344737000                       # Time in different power states
system.mem_ctrls0_1.actEnergy                10859940                       # Energy for activate commands per rank (pJ)
system.mem_ctrls0_1.preEnergy                 5772195                       # Energy for precharge commands per rank (pJ)
system.mem_ctrls0_1.readEnergy               50608320                       # Energy for read commands per rank (pJ)
system.mem_ctrls0_1.writeEnergy              20786040                       # Energy for write commands per rank (pJ)
system.mem_ctrls0_1.refreshEnergy        429018720.000000                       # Energy for refresh commands per rank (pJ)
system.mem_ctrls0_1.actBackEnergy           206387310                       # Energy for active background per rank (pJ)
system.mem_ctrls0_1.preBackEnergy            21187680                       # Energy for precharge background per rank (pJ)
system.mem_ctrls0_1.actPowerDownEnergy     1266660270                       # Energy for active power-down per rank (pJ)
system.mem_ctrls0_1.prePowerDownEnergy      482688000                       # Energy for precharge power-down per rank (pJ)
system.mem_ctrls0_1.selfRefreshEnergy      2659528560                       # Energy for self refresh per rank (pJ)
system.mem_ctrls0_1.totalEnergy            5153639835                       # Total energy per rank (pJ)
system.mem_ctrls0_1.averagePower           335.982274                       # Core power per rank (mW)
system.mem_ctrls0_1.totalIdleTime         14624437250                       # Total Idle time Per DRAM Rank
system.mem_ctrls0_1.memoryStateTime::IDLE     36454000                       # Time in different power states
system.mem_ctrls0_1.memoryStateTime::REF    182242000                       # Time in different power states
system.mem_ctrls0_1.memoryStateTime::SREF  10795735250                       # Time in different power states
system.mem_ctrls0_1.memoryStateTime::PRE_PDN   1257005500                       # Time in different power states
system.mem_ctrls0_1.memoryStateTime::ACT    289790000                       # Time in different power states
system.mem_ctrls0_1.memoryStateTime::ACT_PDN   2777796250                       # Time in different power states
system.mem_ctrls1.pwrStateResidencyTicks::UNDEFINED 17327219180500                       # Cumulative time (in ticks) in various power states
system.mem_ctrls1.bytes_read::detailed_cpu.dtb.walker        17152                       # Number of bytes read from this memory
system.mem_ctrls1.bytes_read::detailed_cpu.itb.walker        11456                       # Number of bytes read from this memory
system.mem_ctrls1.bytes_read::detailed_cpu.inst       336192                       # Number of bytes read from this memory
system.mem_ctrls1.bytes_read::detailed_cpu.data      1658944                       # Number of bytes read from this memory
system.mem_ctrls1.bytes_read::total           2023744                       # Number of bytes read from this memory
system.mem_ctrls1.bytes_inst_read::detailed_cpu.inst       336192                       # Number of instructions bytes read from this memory
system.mem_ctrls1.bytes_inst_read::total       336192                       # Number of instructions bytes read from this memory
system.mem_ctrls1.bytes_written::writebacks       415232                       # Number of bytes written to this memory
system.mem_ctrls1.bytes_written::total         415232                       # Number of bytes written to this memory
system.mem_ctrls1.num_reads::detailed_cpu.dtb.walker          268                       # Number of read requests responded to by this memory
system.mem_ctrls1.num_reads::detailed_cpu.itb.walker          179                       # Number of read requests responded to by this memory
system.mem_ctrls1.num_reads::detailed_cpu.inst         5253                       # Number of read requests responded to by this memory
system.mem_ctrls1.num_reads::detailed_cpu.data        25921                       # Number of read requests responded to by this memory
system.mem_ctrls1.num_reads::total              31621                       # Number of read requests responded to by this memory
system.mem_ctrls1.num_writes::writebacks         6488                       # Number of write requests responded to by this memory
system.mem_ctrls1.num_writes::total              6488                       # Number of write requests responded to by this memory
system.mem_ctrls1.bw_read::detailed_cpu.dtb.walker      1118194                       # Total read bandwidth from this memory (bytes/s)
system.mem_ctrls1.bw_read::detailed_cpu.itb.walker       746853                       # Total read bandwidth from this memory (bytes/s)
system.mem_ctrls1.bw_read::detailed_cpu.inst     21917432                       # Total read bandwidth from this memory (bytes/s)
system.mem_ctrls1.bw_read::detailed_cpu.data    108151869                       # Total read bandwidth from this memory (bytes/s)
system.mem_ctrls1.bw_read::total            131934348                       # Total read bandwidth from this memory (bytes/s)
system.mem_ctrls1.bw_inst_read::detailed_cpu.inst     21917432                       # Instruction read bandwidth from this memory (bytes/s)
system.mem_ctrls1.bw_inst_read::total        21917432                       # Instruction read bandwidth from this memory (bytes/s)
system.mem_ctrls1.bw_write::writebacks       27070303                       # Write bandwidth from this memory (bytes/s)
system.mem_ctrls1.bw_write::total            27070303                       # Write bandwidth from this memory (bytes/s)
system.mem_ctrls1.bw_total::writebacks       27070303                       # Total bandwidth to/from this memory (bytes/s)
system.mem_ctrls1.bw_total::detailed_cpu.dtb.walker      1118194                       # Total bandwidth to/from this memory (bytes/s)
system.mem_ctrls1.bw_total::detailed_cpu.itb.walker       746853                       # Total bandwidth to/from this memory (bytes/s)
system.mem_ctrls1.bw_total::detailed_cpu.inst     21917432                       # Total bandwidth to/from this memory (bytes/s)
system.mem_ctrls1.bw_total::detailed_cpu.data    108151869                       # Total bandwidth to/from this memory (bytes/s)
system.mem_ctrls1.bw_total::total           159004651                       # Total bandwidth to/from this memory (bytes/s)
system.mem_ctrls1.readReqs                      31621                       # Number of read requests accepted
system.mem_ctrls1.writeReqs                      6488                       # Number of write requests accepted
system.mem_ctrls1.readBursts                    31621                       # Number of DRAM read bursts, including those serviced by the write queue
system.mem_ctrls1.writeBursts                    6488                       # Number of DRAM write bursts, including those merged in the write queue
system.mem_ctrls1.bytesReadDRAM               2022464                       # Total number of bytes read from DRAM
system.mem_ctrls1.bytesReadWrQ                   1280                       # Total number of bytes read from write queue
system.mem_ctrls1.bytesWritten                 414144                       # Total number of bytes written to DRAM
system.mem_ctrls1.bytesReadSys                2023744                       # Total read bytes from the system interface side
system.mem_ctrls1.bytesWrittenSys              415232                       # Total written bytes from the system interface side
system.mem_ctrls1.servicedByWrQ                    20                       # Number of DRAM read bursts serviced by the write queue
system.mem_ctrls1.mergedWrBursts                    0                       # Number of DRAM write bursts merged with an existing one
system.mem_ctrls1.neitherReadNorWriteReqs            0                       # Number of requests that are neither read nor write
system.mem_ctrls1.perBankRdBursts::0             1818                       # Per bank write bursts
system.mem_ctrls1.perBankRdBursts::1             2279                       # Per bank write bursts
system.mem_ctrls1.perBankRdBursts::2             2053                       # Per bank write bursts
system.mem_ctrls1.perBankRdBursts::3             1774                       # Per bank write bursts
system.mem_ctrls1.perBankRdBursts::4             1906                       # Per bank write bursts
system.mem_ctrls1.perBankRdBursts::5             1435                       # Per bank write bursts
system.mem_ctrls1.perBankRdBursts::6             1726                       # Per bank write bursts
system.mem_ctrls1.perBankRdBursts::7             1775                       # Per bank write bursts
system.mem_ctrls1.perBankRdBursts::8             1916                       # Per bank write bursts
system.mem_ctrls1.perBankRdBursts::9             1626                       # Per bank write bursts
system.mem_ctrls1.perBankRdBursts::10            1783                       # Per bank write bursts
system.mem_ctrls1.perBankRdBursts::11            2638                       # Per bank write bursts
system.mem_ctrls1.perBankRdBursts::12            2217                       # Per bank write bursts
system.mem_ctrls1.perBankRdBursts::13            1948                       # Per bank write bursts
system.mem_ctrls1.perBankRdBursts::14            2076                       # Per bank write bursts
system.mem_ctrls1.perBankRdBursts::15            2631                       # Per bank write bursts
system.mem_ctrls1.perBankWrBursts::0              412                       # Per bank write bursts
system.mem_ctrls1.perBankWrBursts::1              709                       # Per bank write bursts
system.mem_ctrls1.perBankWrBursts::2              476                       # Per bank write bursts
system.mem_ctrls1.perBankWrBursts::3              433                       # Per bank write bursts
system.mem_ctrls1.perBankWrBursts::4              498                       # Per bank write bursts
system.mem_ctrls1.perBankWrBursts::5              227                       # Per bank write bursts
system.mem_ctrls1.perBankWrBursts::6              270                       # Per bank write bursts
system.mem_ctrls1.perBankWrBursts::7              362                       # Per bank write bursts
system.mem_ctrls1.perBankWrBursts::8              346                       # Per bank write bursts
system.mem_ctrls1.perBankWrBursts::9              196                       # Per bank write bursts
system.mem_ctrls1.perBankWrBursts::10             252                       # Per bank write bursts
system.mem_ctrls1.perBankWrBursts::11             531                       # Per bank write bursts
system.mem_ctrls1.perBankWrBursts::12             271                       # Per bank write bursts
system.mem_ctrls1.perBankWrBursts::13             236                       # Per bank write bursts
system.mem_ctrls1.perBankWrBursts::14             453                       # Per bank write bursts
system.mem_ctrls1.perBankWrBursts::15             799                       # Per bank write bursts
system.mem_ctrls1.numRdRetry                        0                       # Number of times read queue was full causing retry
system.mem_ctrls1.numWrRetry                        0                       # Number of times write queue was full causing retry
system.mem_ctrls1.totGap                  15117697500                       # Total gap between requests
system.mem_ctrls1.readPktSize::0                    0                       # Read request sizes (log2)
system.mem_ctrls1.readPktSize::1                    0                       # Read request sizes (log2)
system.mem_ctrls1.readPktSize::2                    0                       # Read request sizes (log2)
system.mem_ctrls1.readPktSize::3                    0                       # Read request sizes (log2)
system.mem_ctrls1.readPktSize::4                    0                       # Read request sizes (log2)
system.mem_ctrls1.readPktSize::5                    0                       # Read request sizes (log2)
system.mem_ctrls1.readPktSize::6                31621                       # Read request sizes (log2)
system.mem_ctrls1.writePktSize::0                   0                       # Write request sizes (log2)
system.mem_ctrls1.writePktSize::1                   0                       # Write request sizes (log2)
system.mem_ctrls1.writePktSize::2                   0                       # Write request sizes (log2)
system.mem_ctrls1.writePktSize::3                   0                       # Write request sizes (log2)
system.mem_ctrls1.writePktSize::4                   0                       # Write request sizes (log2)
system.mem_ctrls1.writePktSize::5                   0                       # Write request sizes (log2)
system.mem_ctrls1.writePktSize::6                6488                       # Write request sizes (log2)
system.mem_ctrls1.rdQLenPdf::0                  29467                       # What read queue length does an incoming req see
system.mem_ctrls1.rdQLenPdf::1                   2078                       # What read queue length does an incoming req see
system.mem_ctrls1.rdQLenPdf::2                     40                       # What read queue length does an incoming req see
system.mem_ctrls1.rdQLenPdf::3                     16                       # What read queue length does an incoming req see
system.mem_ctrls1.rdQLenPdf::4                      0                       # What read queue length does an incoming req see
system.mem_ctrls1.rdQLenPdf::5                      0                       # What read queue length does an incoming req see
system.mem_ctrls1.rdQLenPdf::6                      0                       # What read queue length does an incoming req see
system.mem_ctrls1.rdQLenPdf::7                      0                       # What read queue length does an incoming req see
system.mem_ctrls1.rdQLenPdf::8                      0                       # What read queue length does an incoming req see
system.mem_ctrls1.rdQLenPdf::9                      0                       # What read queue length does an incoming req see
system.mem_ctrls1.rdQLenPdf::10                     0                       # What read queue length does an incoming req see
system.mem_ctrls1.rdQLenPdf::11                     0                       # What read queue length does an incoming req see
system.mem_ctrls1.rdQLenPdf::12                     0                       # What read queue length does an incoming req see
system.mem_ctrls1.rdQLenPdf::13                     0                       # What read queue length does an incoming req see
system.mem_ctrls1.rdQLenPdf::14                     0                       # What read queue length does an incoming req see
system.mem_ctrls1.rdQLenPdf::15                     0                       # What read queue length does an incoming req see
system.mem_ctrls1.rdQLenPdf::16                     0                       # What read queue length does an incoming req see
system.mem_ctrls1.rdQLenPdf::17                     0                       # What read queue length does an incoming req see
system.mem_ctrls1.rdQLenPdf::18                     0                       # What read queue length does an incoming req see
system.mem_ctrls1.rdQLenPdf::19                     0                       # What read queue length does an incoming req see
system.mem_ctrls1.rdQLenPdf::20                     0                       # What read queue length does an incoming req see
system.mem_ctrls1.rdQLenPdf::21                     0                       # What read queue length does an incoming req see
system.mem_ctrls1.rdQLenPdf::22                     0                       # What read queue length does an incoming req see
system.mem_ctrls1.rdQLenPdf::23                     0                       # What read queue length does an incoming req see
system.mem_ctrls1.rdQLenPdf::24                     0                       # What read queue length does an incoming req see
system.mem_ctrls1.rdQLenPdf::25                     0                       # What read queue length does an incoming req see
system.mem_ctrls1.rdQLenPdf::26                     0                       # What read queue length does an incoming req see
system.mem_ctrls1.rdQLenPdf::27                     0                       # What read queue length does an incoming req see
system.mem_ctrls1.rdQLenPdf::28                     0                       # What read queue length does an incoming req see
system.mem_ctrls1.rdQLenPdf::29                     0                       # What read queue length does an incoming req see
system.mem_ctrls1.rdQLenPdf::30                     0                       # What read queue length does an incoming req see
system.mem_ctrls1.rdQLenPdf::31                     0                       # What read queue length does an incoming req see
system.mem_ctrls1.wrQLenPdf::0                      1                       # What write queue length does an incoming req see
system.mem_ctrls1.wrQLenPdf::1                      1                       # What write queue length does an incoming req see
system.mem_ctrls1.wrQLenPdf::2                      1                       # What write queue length does an incoming req see
system.mem_ctrls1.wrQLenPdf::3                      1                       # What write queue length does an incoming req see
system.mem_ctrls1.wrQLenPdf::4                      1                       # What write queue length does an incoming req see
system.mem_ctrls1.wrQLenPdf::5                      1                       # What write queue length does an incoming req see
system.mem_ctrls1.wrQLenPdf::6                      1                       # What write queue length does an incoming req see
system.mem_ctrls1.wrQLenPdf::7                      1                       # What write queue length does an incoming req see
system.mem_ctrls1.wrQLenPdf::8                      1                       # What write queue length does an incoming req see
system.mem_ctrls1.wrQLenPdf::9                      1                       # What write queue length does an incoming req see
system.mem_ctrls1.wrQLenPdf::10                     1                       # What write queue length does an incoming req see
system.mem_ctrls1.wrQLenPdf::11                     1                       # What write queue length does an incoming req see
system.mem_ctrls1.wrQLenPdf::12                     1                       # What write queue length does an incoming req see
system.mem_ctrls1.wrQLenPdf::13                     1                       # What write queue length does an incoming req see
system.mem_ctrls1.wrQLenPdf::14                     1                       # What write queue length does an incoming req see
system.mem_ctrls1.wrQLenPdf::15                   166                       # What write queue length does an incoming req see
system.mem_ctrls1.wrQLenPdf::16                   180                       # What write queue length does an incoming req see
system.mem_ctrls1.wrQLenPdf::17                   377                       # What write queue length does an incoming req see
system.mem_ctrls1.wrQLenPdf::18                   382                       # What write queue length does an incoming req see
system.mem_ctrls1.wrQLenPdf::19                   383                       # What write queue length does an incoming req see
system.mem_ctrls1.wrQLenPdf::20                   383                       # What write queue length does an incoming req see
system.mem_ctrls1.wrQLenPdf::21                   383                       # What write queue length does an incoming req see
system.mem_ctrls1.wrQLenPdf::22                   387                       # What write queue length does an incoming req see
system.mem_ctrls1.wrQLenPdf::23                   385                       # What write queue length does an incoming req see
system.mem_ctrls1.wrQLenPdf::24                   384                       # What write queue length does an incoming req see
system.mem_ctrls1.wrQLenPdf::25                   383                       # What write queue length does an incoming req see
system.mem_ctrls1.wrQLenPdf::26                   383                       # What write queue length does an incoming req see
system.mem_ctrls1.wrQLenPdf::27                   382                       # What write queue length does an incoming req see
system.mem_ctrls1.wrQLenPdf::28                   382                       # What write queue length does an incoming req see
system.mem_ctrls1.wrQLenPdf::29                   385                       # What write queue length does an incoming req see
system.mem_ctrls1.wrQLenPdf::30                   384                       # What write queue length does an incoming req see
system.mem_ctrls1.wrQLenPdf::31                   382                       # What write queue length does an incoming req see
system.mem_ctrls1.wrQLenPdf::32                   382                       # What write queue length does an incoming req see
system.mem_ctrls1.wrQLenPdf::33                     0                       # What write queue length does an incoming req see
system.mem_ctrls1.wrQLenPdf::34                     0                       # What write queue length does an incoming req see
system.mem_ctrls1.wrQLenPdf::35                     0                       # What write queue length does an incoming req see
system.mem_ctrls1.wrQLenPdf::36                     0                       # What write queue length does an incoming req see
system.mem_ctrls1.wrQLenPdf::37                     0                       # What write queue length does an incoming req see
system.mem_ctrls1.wrQLenPdf::38                     0                       # What write queue length does an incoming req see
system.mem_ctrls1.wrQLenPdf::39                     0                       # What write queue length does an incoming req see
system.mem_ctrls1.wrQLenPdf::40                     0                       # What write queue length does an incoming req see
system.mem_ctrls1.wrQLenPdf::41                     0                       # What write queue length does an incoming req see
system.mem_ctrls1.wrQLenPdf::42                     0                       # What write queue length does an incoming req see
system.mem_ctrls1.wrQLenPdf::43                     0                       # What write queue length does an incoming req see
system.mem_ctrls1.wrQLenPdf::44                     0                       # What write queue length does an incoming req see
system.mem_ctrls1.wrQLenPdf::45                     0                       # What write queue length does an incoming req see
system.mem_ctrls1.wrQLenPdf::46                     0                       # What write queue length does an incoming req see
system.mem_ctrls1.wrQLenPdf::47                     0                       # What write queue length does an incoming req see
system.mem_ctrls1.wrQLenPdf::48                     0                       # What write queue length does an incoming req see
system.mem_ctrls1.wrQLenPdf::49                     0                       # What write queue length does an incoming req see
system.mem_ctrls1.wrQLenPdf::50                     0                       # What write queue length does an incoming req see
system.mem_ctrls1.wrQLenPdf::51                     0                       # What write queue length does an incoming req see
system.mem_ctrls1.wrQLenPdf::52                     0                       # What write queue length does an incoming req see
system.mem_ctrls1.wrQLenPdf::53                     0                       # What write queue length does an incoming req see
system.mem_ctrls1.wrQLenPdf::54                     0                       # What write queue length does an incoming req see
system.mem_ctrls1.wrQLenPdf::55                     0                       # What write queue length does an incoming req see
system.mem_ctrls1.wrQLenPdf::56                     0                       # What write queue length does an incoming req see
system.mem_ctrls1.wrQLenPdf::57                     0                       # What write queue length does an incoming req see
system.mem_ctrls1.wrQLenPdf::58                     0                       # What write queue length does an incoming req see
system.mem_ctrls1.wrQLenPdf::59                     0                       # What write queue length does an incoming req see
system.mem_ctrls1.wrQLenPdf::60                     0                       # What write queue length does an incoming req see
system.mem_ctrls1.wrQLenPdf::61                     0                       # What write queue length does an incoming req see
system.mem_ctrls1.wrQLenPdf::62                     0                       # What write queue length does an incoming req see
system.mem_ctrls1.wrQLenPdf::63                     0                       # What write queue length does an incoming req see
system.mem_ctrls1.bytesPerActivate::samples        10032                       # Bytes accessed per row activation
system.mem_ctrls1.bytesPerActivate::mean   242.883573                       # Bytes accessed per row activation
system.mem_ctrls1.bytesPerActivate::gmean   144.728493                       # Bytes accessed per row activation
system.mem_ctrls1.bytesPerActivate::stdev   288.544558                       # Bytes accessed per row activation
system.mem_ctrls1.bytesPerActivate::0-127         4607     45.92%     45.92% # Bytes accessed per row activation
system.mem_ctrls1.bytesPerActivate::128-255         2600     25.92%     71.84% # Bytes accessed per row activation
system.mem_ctrls1.bytesPerActivate::256-383          796      7.93%     79.77% # Bytes accessed per row activation
system.mem_ctrls1.bytesPerActivate::384-511          421      4.20%     83.97% # Bytes accessed per row activation
system.mem_ctrls1.bytesPerActivate::512-639          272      2.71%     86.68% # Bytes accessed per row activation
system.mem_ctrls1.bytesPerActivate::640-767          326      3.25%     89.93% # Bytes accessed per row activation
system.mem_ctrls1.bytesPerActivate::768-895          135      1.35%     91.28% # Bytes accessed per row activation
system.mem_ctrls1.bytesPerActivate::896-1023           92      0.92%     92.19% # Bytes accessed per row activation
system.mem_ctrls1.bytesPerActivate::1024-1151          783      7.81%    100.00% # Bytes accessed per row activation
system.mem_ctrls1.bytesPerActivate::total        10032                       # Bytes accessed per row activation
system.mem_ctrls1.rdPerTurnAround::samples          382                       # Reads before turning the bus around for writes
system.mem_ctrls1.rdPerTurnAround::mean     82.717277                       # Reads before turning the bus around for writes
system.mem_ctrls1.rdPerTurnAround::stdev   510.056457                       # Reads before turning the bus around for writes
system.mem_ctrls1.rdPerTurnAround::0-511          378     98.95%     98.95% # Reads before turning the bus around for writes
system.mem_ctrls1.rdPerTurnAround::512-1023            1      0.26%     99.21% # Reads before turning the bus around for writes
system.mem_ctrls1.rdPerTurnAround::1536-2047            2      0.52%     99.74% # Reads before turning the bus around for writes
system.mem_ctrls1.rdPerTurnAround::9216-9727            1      0.26%    100.00% # Reads before turning the bus around for writes
system.mem_ctrls1.rdPerTurnAround::total          382                       # Reads before turning the bus around for writes
system.mem_ctrls1.wrPerTurnAround::samples          382                       # Writes before turning the bus around for reads
system.mem_ctrls1.wrPerTurnAround::mean     16.939791                       # Writes before turning the bus around for reads
system.mem_ctrls1.wrPerTurnAround::gmean    16.905609                       # Writes before turning the bus around for reads
system.mem_ctrls1.wrPerTurnAround::stdev     1.088734                       # Writes before turning the bus around for reads
system.mem_ctrls1.wrPerTurnAround::16             210     54.97%     54.97% # Writes before turning the bus around for reads
system.mem_ctrls1.wrPerTurnAround::17               7      1.83%     56.81% # Writes before turning the bus around for reads
system.mem_ctrls1.wrPerTurnAround::18             148     38.74%     95.55% # Writes before turning the bus around for reads
system.mem_ctrls1.wrPerTurnAround::19              13      3.40%     98.95% # Writes before turning the bus around for reads
system.mem_ctrls1.wrPerTurnAround::20               3      0.79%     99.74% # Writes before turning the bus around for reads
system.mem_ctrls1.wrPerTurnAround::21               1      0.26%    100.00% # Writes before turning the bus around for reads
system.mem_ctrls1.wrPerTurnAround::total          382                       # Writes before turning the bus around for reads
system.mem_ctrls1.totQLat                   650893500                       # Total ticks spent queuing
system.mem_ctrls1.totMemAccLat             1243412250                       # Total ticks spent from burst creation until serviced by the DRAM
system.mem_ctrls1.totBusLat                 158005000                       # Total ticks spent in databus transfers
system.mem_ctrls1.avgQLat                    20597.24                       # Average queueing delay per DRAM burst
system.mem_ctrls1.avgBusLat                   5000.00                       # Average bus latency per DRAM burst
system.mem_ctrls1.avgMemAccLat               39347.24                       # Average memory access latency per DRAM burst
system.mem_ctrls1.avgRdBW                      131.85                       # Average DRAM read bandwidth in MiByte/s
system.mem_ctrls1.avgWrBW                       27.00                       # Average achieved write bandwidth in MiByte/s
system.mem_ctrls1.avgRdBWSys                   131.93                       # Average system read bandwidth in MiByte/s
system.mem_ctrls1.avgWrBWSys                    27.07                       # Average system write bandwidth in MiByte/s
system.mem_ctrls1.peakBW                     12800.00                       # Theoretical peak bandwidth in MiByte/s
system.mem_ctrls1.busUtil                        1.24                       # Data bus utilization in percentage
system.mem_ctrls1.busUtilRead                    1.03                       # Data bus utilization in percentage for reads
system.mem_ctrls1.busUtilWrite                   0.21                       # Data bus utilization in percentage for writes
system.mem_ctrls1.avgRdQLen                      1.02                       # Average read queue length when enqueuing
system.mem_ctrls1.avgWrQLen                     20.30                       # Average write queue length when enqueuing
system.mem_ctrls1.readRowHits                   24184                       # Number of row buffer hits during reads
system.mem_ctrls1.writeRowHits                   3856                       # Number of row buffer hits during writes
system.mem_ctrls1.readRowHitRate                76.53                       # Row buffer hit rate for reads
system.mem_ctrls1.writeRowHitRate               59.43                       # Row buffer hit rate for writes
system.mem_ctrls1.avgGap                    396696.25                       # Average gap between requests
system.mem_ctrls1.pageHitRate                   73.62                       # Row buffer hit rate, read and write combined
system.mem_ctrls1_0.actEnergy                34100640                       # Energy for activate commands per rank (pJ)
system.mem_ctrls1_0.preEnergy                18124920                       # Energy for precharge commands per rank (pJ)
system.mem_ctrls1_0.readEnergy              105429240                       # Energy for read commands per rank (pJ)
system.mem_ctrls1_0.writeEnergy              17680140                       # Energy for write commands per rank (pJ)
system.mem_ctrls1_0.refreshEnergy        886925520.000000                       # Energy for refresh commands per rank (pJ)
system.mem_ctrls1_0.actBackEnergy           580989600                       # Energy for active background per rank (pJ)
system.mem_ctrls1_0.preBackEnergy            41020320                       # Energy for precharge background per rank (pJ)
system.mem_ctrls1_0.actPowerDownEnergy     2554629420                       # Energy for active power-down per rank (pJ)
system.mem_ctrls1_0.prePowerDownEnergy     1062107520                       # Energy for precharge power-down per rank (pJ)
system.mem_ctrls1_0.selfRefreshEnergy      1455343440                       # Energy for self refresh per rank (pJ)
system.mem_ctrls1_0.totalEnergy            6756537030                       # Total energy per rank (pJ)
system.mem_ctrls1_0.averagePower           440.480272                       # Core power per rank (mW)
system.mem_ctrls1_0.totalIdleTime         13745195250                       # Total Idle time Per DRAM Rank
system.mem_ctrls1_0.memoryStateTime::IDLE     66536750                       # Time in different power states
system.mem_ctrls1_0.memoryStateTime::REF    376434000                       # Time in different power states
system.mem_ctrls1_0.memoryStateTime::SREF   5589499500                       # Time in different power states
system.mem_ctrls1_0.memoryStateTime::PRE_PDN   2765883000                       # Time in different power states
system.mem_ctrls1_0.memoryStateTime::ACT    938544500                       # Time in different power states
system.mem_ctrls1_0.memoryStateTime::ACT_PDN   5602125250                       # Time in different power states
system.mem_ctrls1_1.actEnergy                37527840                       # Energy for activate commands per rank (pJ)
system.mem_ctrls1_1.preEnergy                19946520                       # Energy for precharge commands per rank (pJ)
system.mem_ctrls1_1.readEnergy              120201900                       # Energy for read commands per rank (pJ)
system.mem_ctrls1_1.writeEnergy              16098480                       # Energy for write commands per rank (pJ)
system.mem_ctrls1_1.refreshEnergy        878320560.000000                       # Energy for refresh commands per rank (pJ)
system.mem_ctrls1_1.actBackEnergy           607184520                       # Energy for active background per rank (pJ)
system.mem_ctrls1_1.preBackEnergy            41665440                       # Energy for precharge background per rank (pJ)
system.mem_ctrls1_1.actPowerDownEnergy     2655608910                       # Energy for active power-down per rank (pJ)
system.mem_ctrls1_1.prePowerDownEnergy      970426560                       # Energy for precharge power-down per rank (pJ)
system.mem_ctrls1_1.selfRefreshEnergy      1433460300                       # Energy for self refresh per rank (pJ)
system.mem_ctrls1_1.totalEnergy            6780801450                       # Total energy per rank (pJ)
system.mem_ctrls1_1.averagePower           442.062148                       # Core power per rank (mW)
system.mem_ctrls1_1.totalIdleTime         13683993250                       # Total Idle time Per DRAM Rank
system.mem_ctrls1_1.memoryStateTime::IDLE     66224250                       # Time in different power states
system.mem_ctrls1_1.memoryStateTime::REF    372698000                       # Time in different power states
system.mem_ctrls1_1.memoryStateTime::SREF   5546251750                       # Time in different power states
system.mem_ctrls1_1.memoryStateTime::PRE_PDN   2527163000                       # Time in different power states
system.mem_ctrls1_1.memoryStateTime::ACT   1003008000                       # Time in different power states
system.mem_ctrls1_1.memoryStateTime::ACT_PDN   5823678000                       # Time in different power states
system.pwrStateResidencyTicks::UNDEFINED 17327219180500                       # Cumulative time (in ticks) in various power states
system.apicbridge.pwrStateResidencyTicks::UNDEFINED 17327219180500                       # Cumulative time (in ticks) in various power states
system.bridge.pwrStateResidencyTicks::UNDEFINED 17327219180500                       # Cumulative time (in ticks) in various power states
system.cpu_voltage_domain.voltage                   1                       # Voltage in Volts
system.cpu_clk_domain.clock                       500                       # Clock period in ticks
system.cpu.dtb.walker.pwrStateResidencyTicks::UNDEFINED 17327219180500                       # Cumulative time (in ticks) in various power states
system.cpu.dtb.rdAccesses                           0                       # TLB accesses on read requests
system.cpu.dtb.wrAccesses                           0                       # TLB accesses on write requests
system.cpu.dtb.rdMisses                             0                       # TLB misses on read requests
system.cpu.dtb.wrMisses                             0                       # TLB misses on write requests
system.cpu.apic_clk_domain.clock                 8000                       # Clock period in ticks
system.cpu.interrupts.pwrStateResidencyTicks::UNDEFINED 17327219180500                       # Cumulative time (in ticks) in various power states
system.cpu.itb.walker.pwrStateResidencyTicks::UNDEFINED 17327219180500                       # Cumulative time (in ticks) in various power states
system.cpu.itb.rdAccesses                           0                       # TLB accesses on read requests
system.cpu.itb.wrAccesses                           0                       # TLB accesses on write requests
system.cpu.itb.rdMisses                             0                       # TLB misses on read requests
system.cpu.itb.wrMisses                             0                       # TLB misses on write requests
system.cpu.pwrStateResidencyTicks::OFF    15339023000                       # Cumulative time (in ticks) in various power states
system.cpu.numCycles                                0                       # number of cpu cycles simulated
system.cpu.numWorkItemsStarted                      0                       # number of work items this cpu started
system.cpu.numWorkItemsCompleted                    0                       # number of work items this cpu completed
system.cpu.committedInsts                           0                       # Number of instructions committed
system.cpu.numVMExits                               0                       # total number of KVM exits
system.cpu.numVMHalfEntries                         0                       # number of KVM entries to finalize pending operations
system.cpu.numExitSignal                            0                       # exits due to signal delivery
system.cpu.numMMIO                                  0                       # number of VM exits due to memory mapped IO
system.cpu.numCoalescedMMIO                         0                       # number of coalesced memory mapped IO requests
system.cpu.numIO                                    0                       # number of VM exits due to legacy IO
system.cpu.numHalt                                  0                       # number of VM exits due to wait for interrupt instructions
system.cpu.numInterrupts                            0                       # number of interrupts delivered
system.cpu.numHypercalls                            0                       # number of hypercalls
system.cpu.kern.inst.arm                            0                       # number of arm instructions executed
system.cpu.kern.inst.quiesce                        0                       # number of quiesce instructions executed
system.cpu.dcache.tags.pwrStateResidencyTicks::UNDEFINED 17327219180500                       # Cumulative time (in ticks) in various power states
system.cpu.dcache.tags.replacements             67688                       # number of replacements
system.cpu.dcache.tags.tagsinuse           989.415071                       # Cycle average of tags in use
system.cpu.dcache.tags.total_refs             2672598                       # Total number of references to valid blocks.
system.cpu.dcache.tags.sampled_refs             67688                       # Sample count of references to valid blocks.
system.cpu.dcache.tags.avg_refs             39.484074                       # Average number of references to valid blocks.
system.cpu.dcache.tags.warmup_cycle      17313337037500                       # Cycle when the warmup percentage was hit.
system.cpu.dcache.tags.occ_blocks::detailed_cpu.data   989.415071                       # Average occupied blocks per requestor
system.cpu.dcache.tags.occ_percent::detailed_cpu.data     0.966226                       # Average percentage of cache occupancy
system.cpu.dcache.tags.occ_percent::total     0.966226                       # Average percentage of cache occupancy
system.cpu.dcache.tags.occ_task_id_blocks::1024         1024                       # Occupied blocks per task id
system.cpu.dcache.tags.age_task_id_blocks_1024::1          101                       # Occupied blocks per task id
system.cpu.dcache.tags.age_task_id_blocks_1024::2          768                       # Occupied blocks per task id
system.cpu.dcache.tags.age_task_id_blocks_1024::3          155                       # Occupied blocks per task id
system.cpu.dcache.tags.occ_task_id_percent::1024            1                       # Percentage of cache occupancy per task id
system.cpu.dcache.tags.tag_accesses           5686057                       # Number of tag accesses
system.cpu.dcache.tags.data_accesses          5686057                       # Number of data accesses
system.cpu.dcache.pwrStateResidencyTicks::UNDEFINED 17327219180500                       # Cumulative time (in ticks) in various power states
system.cpu.dcache.ReadReq_hits::detailed_cpu.data      1545226                       # number of ReadReq hits
system.cpu.dcache.ReadReq_hits::total         1545226                       # number of ReadReq hits
system.cpu.dcache.WriteReq_hits::detailed_cpu.data      1193851                       # number of WriteReq hits
system.cpu.dcache.WriteReq_hits::total        1193851                       # number of WriteReq hits
system.cpu.dcache.SoftPFReq_hits::detailed_cpu.data          542                       # number of SoftPFReq hits
system.cpu.dcache.SoftPFReq_hits::total           542                       # number of SoftPFReq hits
system.cpu.dcache.demand_hits::detailed_cpu.data      2739077                       # number of demand (read+write) hits
system.cpu.dcache.demand_hits::total          2739077                       # number of demand (read+write) hits
system.cpu.dcache.overall_hits::detailed_cpu.data      2739619                       # number of overall hits
system.cpu.dcache.overall_hits::total         2739619                       # number of overall hits
system.cpu.dcache.ReadReq_misses::detailed_cpu.data        39459                       # number of ReadReq misses
system.cpu.dcache.ReadReq_misses::total         39459                       # number of ReadReq misses
system.cpu.dcache.WriteReq_misses::detailed_cpu.data        25143                       # number of WriteReq misses
system.cpu.dcache.WriteReq_misses::total        25143                       # number of WriteReq misses
system.cpu.dcache.SoftPFReq_misses::detailed_cpu.data         4434                       # number of SoftPFReq misses
system.cpu.dcache.SoftPFReq_misses::total         4434                       # number of SoftPFReq misses
system.cpu.dcache.demand_misses::detailed_cpu.data        64602                       # number of demand (read+write) misses
system.cpu.dcache.demand_misses::total          64602                       # number of demand (read+write) misses
system.cpu.dcache.overall_misses::detailed_cpu.data        69036                       # number of overall misses
system.cpu.dcache.overall_misses::total         69036                       # number of overall misses
system.cpu.dcache.ReadReq_miss_latency::detailed_cpu.data   1832131496                       # number of ReadReq miss cycles
system.cpu.dcache.ReadReq_miss_latency::total   1832131496                       # number of ReadReq miss cycles
system.cpu.dcache.WriteReq_miss_latency::detailed_cpu.data   1462724486                       # number of WriteReq miss cycles
[...]
system.l2.overall_avg_mshr_miss_latency::total 80328.930195                       # average overall mshr miss latency
system.l2.ReadReq_avg_mshr_uncacheable_latency::detailed_cpu.dtb.walker 293742.424242                       # average ReadReq mshr uncacheable latency
system.l2.ReadReq_avg_mshr_uncacheable_latency::detailed_cpu.data 226061.938534                       # average ReadReq mshr uncacheable latency
system.l2.ReadReq_avg_mshr_uncacheable_latency::total 228110.041265                       # average ReadReq mshr uncacheable latency
system.l2.overall_avg_mshr_uncacheable_latency::detailed_cpu.dtb.walker 289358.208955                       # average overall mshr uncacheable latency
system.l2.overall_avg_mshr_uncacheable_latency::detailed_cpu.data 151256.248023                       # average overall mshr uncacheable latency
system.l2.overall_avg_mshr_uncacheable_latency::total 154122.676580                       # average overall mshr uncacheable latency
system.membus.snoop_filter.tot_requests         79377                       # Total number of requests made to the snoop filter.
system.membus.snoop_filter.hit_single_requests        23919                       # Number of requests hitting in the snoop filter with a single holder of the requested data.
system.membus.snoop_filter.hit_multi_requests          100                       # Number of requests hitting in the snoop filter with multiple (>1) holders of the requested data.
system.membus.snoop_filter.tot_snoops               0                       # Total number of snoops made to the snoop filter.
system.membus.snoop_filter.hit_single_snoops            0                       # Number of snoops hitting in the snoop filter with a single holder of the requested data.
system.membus.snoop_filter.hit_multi_snoops            0                       # Number of snoops hitting in the snoop filter with multiple (>1) holders of the requested data.
system.membus.pwrStateResidencyTicks::UNDEFINED 17327219180500                       # Cumulative time (in ticks) in various power states
system.membus.trans_dist::ReadReq                2181                       # Transaction distribution
system.membus.trans_dist::ReadResp              34678                       # Transaction distribution
system.membus.trans_dist::WriteReq               1047                       # Transaction distribution
system.membus.trans_dist::WriteResp              1047                       # Transaction distribution
system.membus.trans_dist::WritebackDirty        14442                       # Transaction distribution
system.membus.trans_dist::CleanEvict             9340                       # Transaction distribution
system.membus.trans_dist::UpgradeReq              113                       # Transaction distribution
system.membus.trans_dist::ReadExReq             15044                       # Transaction distribution
system.membus.trans_dist::ReadExResp            15041                       # Transaction distribution
system.membus.trans_dist::ReadSharedReq         32497                       # Transaction distribution
system.membus.trans_dist::MessageReq              663                       # Transaction distribution
system.membus.trans_dist::MessageResp             663                       # Transaction distribution
system.membus.trans_dist::InvalidateReq          7936                       # Transaction distribution
system.membus.pkt_count_system.apicbridge.master::system.cpu.interrupts.int_slave         1326                       # Packet count per connected master and slave (bytes)
system.membus.pkt_count_system.apicbridge.master::total         1326                       # Packet count per connected master and slave (bytes)
system.membus.pkt_count_system.iocache.mem_side::system.mem_ctrls0.port        15928                       # Packet count per connected master and slave (bytes)
system.membus.pkt_count_system.iocache.mem_side::total        15928                       # Packet count per connected master and slave (bytes)
system.membus.pkt_count_system.l2.mem_side::system.bridge.slave         6042                       # Packet count per connected master and slave (bytes)
system.membus.pkt_count_system.l2.mem_side::system.cpu.interrupts.pio          280                       # Packet count per connected master and slave (bytes)
system.membus.pkt_count_system.l2.mem_side::system.mem_ctrls0.port        37184                       # Packet count per connected master and slave (bytes)
system.membus.pkt_count_system.l2.mem_side::system.mem_ctrls1.port        73816                       # Packet count per connected master and slave (bytes)
system.membus.pkt_count_system.l2.mem_side::total       117322                       # Packet count per connected master and slave (bytes)
system.membus.pkt_count::total                 134576                       # Packet count per connected master and slave (bytes)
system.membus.pkt_size_system.apicbridge.master::system.cpu.interrupts.int_slave         2652                       # Cumulative packet size per connected master and slave (bytes)
system.membus.pkt_size_system.apicbridge.master::total         2652                       # Cumulative packet size per connected master and slave (bytes)
system.membus.pkt_size_system.iocache.mem_side::system.mem_ctrls0.port       506880                       # Cumulative packet size per connected master and slave (bytes)
system.membus.pkt_size_system.iocache.mem_side::total       506880                       # Cumulative packet size per connected master and slave (bytes)
system.membus.pkt_size_system.l2.mem_side::system.bridge.slave         3036                       # Cumulative packet size per connected master and slave (bytes)
system.membus.pkt_size_system.l2.mem_side::system.cpu.interrupts.pio          560                       # Cumulative packet size per connected master and slave (bytes)
system.membus.pkt_size_system.l2.mem_side::system.mem_ctrls0.port      1013976                       # Cumulative packet size per connected master and slave (bytes)
system.membus.pkt_size_system.l2.mem_side::system.mem_ctrls1.port      2438976                       # Cumulative packet size per connected master and slave (bytes)
system.membus.pkt_size_system.l2.mem_side::total      3456548                       # Cumulative packet size per connected master and slave (bytes)
system.membus.pkt_size::total                 3966080                       # Cumulative packet size per connected master and slave (bytes)
system.membus.snoops                              230                       # Total snoops (count)
system.membus.snoopTraffic                       7424                       # Total snoop traffic (bytes)
system.membus.snoop_fanout::samples             59481                       # Request fanout histogram
system.membus.snoop_fanout::mean             0.001950                       # Request fanout histogram
system.membus.snoop_fanout::stdev            0.044118                       # Request fanout histogram
system.membus.snoop_fanout::underflows              0      0.00%      0.00% # Request fanout histogram
system.membus.snoop_fanout::0                   59365     99.80%     99.80% # Request fanout histogram
system.membus.snoop_fanout::1                     116      0.20%    100.00% # Request fanout histogram
system.membus.snoop_fanout::2                       0      0.00%    100.00% # Request fanout histogram
system.membus.snoop_fanout::overflows               0      0.00%    100.00% # Request fanout histogram
system.membus.snoop_fanout::min_value               0                       # Request fanout histogram
system.membus.snoop_fanout::max_value               1                       # Request fanout histogram
system.membus.snoop_fanout::total               59481                       # Request fanout histogram
system.membus.reqLayer0.occupancy             4951000                       # Layer occupancy (ticks)
system.membus.reqLayer0.utilization               0.0                       # Layer utilization (%)
system.membus.reqLayer1.occupancy              298000                       # Layer occupancy (ticks)
system.membus.reqLayer1.utilization               0.0                       # Layer utilization (%)
system.membus.reqLayer2.occupancy             1647500                       # Layer occupancy (ticks)
system.membus.reqLayer2.utilization               0.0                       # Layer utilization (%)
system.membus.reqLayer3.occupancy            69869938                       # Layer occupancy (ticks)
system.membus.reqLayer3.utilization               0.5                       # Layer utilization (%)
system.membus.reqLayer4.occupancy            69744000                       # Layer occupancy (ticks)
system.membus.reqLayer4.utilization               0.5                       # Layer utilization (%)
system.membus.respLayer0.occupancy             984500                       # Layer occupancy (ticks)
system.membus.respLayer0.utilization              0.0                       # Layer utilization (%)
system.membus.respLayer2.occupancy             190506                       # Layer occupancy (ticks)
system.membus.respLayer2.utilization              0.0                       # Layer utilization (%)
system.membus.respLayer3.occupancy          258001750                       # Layer occupancy (ticks)
system.membus.respLayer3.utilization              1.7                       # Layer utilization (%)
system.membus.badaddr_responder.pwrStateResidencyTicks::UNDEFINED 17327219180500                       # Cumulative time (in ticks) in various power states
system.pc.behind_pci.pwrStateResidencyTicks::UNDEFINED 17327219180500                       # Cumulative time (in ticks) in various power states
system.pc.com_1.pwrStateResidencyTicks::UNDEFINED 17327219180500                       # Cumulative time (in ticks) in various power states
system.pc.fake_com_2.pwrStateResidencyTicks::UNDEFINED 17327219180500                       # Cumulative time (in ticks) in various power states
system.pc.fake_com_3.pwrStateResidencyTicks::UNDEFINED 17327219180500                       # Cumulative time (in ticks) in various power states
system.pc.fake_com_4.pwrStateResidencyTicks::UNDEFINED 17327219180500                       # Cumulative time (in ticks) in various power states
system.pc.fake_floppy.pwrStateResidencyTicks::UNDEFINED 17327219180500                       # Cumulative time (in ticks) in various power states
system.pc.i_dont_exist1.pwrStateResidencyTicks::UNDEFINED 17327219180500                       # Cumulative time (in ticks) in various power states
system.pc.i_dont_exist2.pwrStateResidencyTicks::UNDEFINED 17327219180500                       # Cumulative time (in ticks) in various power states
system.pc.pci_host.pwrStateResidencyTicks::UNDEFINED 17327219180500                       # Cumulative time (in ticks) in various power states
system.pc.south_bridge.cmos.pwrStateResidencyTicks::UNDEFINED 17327219180500                       # Cumulative time (in ticks) in various power states
system.pc.south_bridge.dma1.pwrStateResidencyTicks::UNDEFINED 17327219180500                       # Cumulative time (in ticks) in various power states
system.pc.south_bridge.pic2.pwrStateResidencyTicks::UNDEFINED 17327219180500                       # Cumulative time (in ticks) in various power states
system.pc.south_bridge.pic1.pwrStateResidencyTicks::UNDEFINED 17327219180500                       # Cumulative time (in ticks) in various power states
system.pc.south_bridge.io_apic.pwrStateResidencyTicks::UNDEFINED 17327219180500                       # Cumulative time (in ticks) in various power states
system.pc.south_bridge.keyboard.pwrStateResidencyTicks::UNDEFINED 17327219180500                       # Cumulative time (in ticks) in various power states
system.pc.south_bridge.pit.pwrStateResidencyTicks::UNDEFINED 17327219180500                       # Cumulative time (in ticks) in various power states
system.pc.south_bridge.speaker.pwrStateResidencyTicks::UNDEFINED 17327219180500                       # Cumulative time (in ticks) in various power states
system.pc.south_bridge.ide.disks.dma_read_full_pages            0                       # Number of full page size DMA reads (not PRD).
system.pc.south_bridge.ide.disks.dma_read_bytes            0                       # Number of bytes transfered via DMA reads (not PRD).
system.pc.south_bridge.ide.disks.dma_read_txs            0                       # Number of DMA read transactions (not PRD).
system.pc.south_bridge.ide.disks.dma_write_full_pages          124                       # Number of full page size DMA writes.
system.pc.south_bridge.ide.disks.dma_write_bytes       507904                       # Number of bytes transfered via DMA writes.
system.pc.south_bridge.ide.disks.dma_write_txs          124                       # Number of DMA write transactions.
system.pc.south_bridge.ide.pwrStateResidencyTicks::UNDEFINED 17327219180500                       # Cumulative time (in ticks) in various power states
system.tol2bus.snoop_filter.tot_requests       446357                       # Total number of requests made to the snoop filter.
system.tol2bus.snoop_filter.hit_single_requests       221310                       # Number of requests hitting in the snoop filter with a single holder of the requested data.
system.tol2bus.snoop_filter.hit_multi_requests        31318                       # Number of requests hitting in the snoop filter with multiple (>1) holders of the requested data.
system.tol2bus.snoop_filter.tot_snoops             28                       # Total number of snoops made to the snoop filter.
system.tol2bus.snoop_filter.hit_single_snoops           28                       # Number of snoops hitting in the snoop filter with a single holder of the requested data.
system.tol2bus.snoop_filter.hit_multi_snoops            0                       # Number of snoops hitting in the snoop filter with multiple (>1) holders of the requested data.
system.tol2bus.pwrStateResidencyTicks::UNDEFINED 17327219180500                       # Cumulative time (in ticks) in various power states
system.tol2bus.trans_dist::ReadReq               2181                       # Transaction distribution
system.tol2bus.trans_dist::ReadResp            201264                       # Transaction distribution
system.tol2bus.trans_dist::WriteReq              1047                       # Transaction distribution
system.tol2bus.trans_dist::WriteResp             1047                       # Transaction distribution
system.tol2bus.trans_dist::WritebackDirty        55769                       # Transaction distribution
system.tol2bus.trans_dist::WritebackClean        66923                       # Transaction distribution
system.tol2bus.trans_dist::CleanEvict          115313                       # Transaction distribution
system.tol2bus.trans_dist::UpgradeReq             260                       # Transaction distribution
system.tol2bus.trans_dist::UpgradeResp            260                       # Transaction distribution
system.tol2bus.trans_dist::ReadExReq            24861                       # Transaction distribution
system.tol2bus.trans_dist::ReadExResp           24861                       # Transaction distribution
system.tol2bus.trans_dist::ReadCleanReq         67435                       # Transaction distribution
system.tol2bus.trans_dist::ReadSharedReq       131658                       # Transaction distribution
system.tol2bus.pkt_count_system.cpu.icache.mem_side::system.l2.cpu_side       201793                       # Packet count per connected master and slave (bytes)
system.tol2bus.pkt_count_system.cpu.dcache.mem_side::system.l2.cpu_side       211775                       # Packet count per connected master and slave (bytes)
system.tol2bus.pkt_count_system.cpu.itb_walker_cache.mem_side::system.l2.cpu_side        50095                       # Packet count per connected master and slave (bytes)
system.tol2bus.pkt_count_system.cpu.dtb_walker_cache.mem_side::system.l2.cpu_side       205225                       # Packet count per connected master and slave (bytes)
system.tol2bus.pkt_count::total                668888                       # Packet count per connected master and slave (bytes)
system.tol2bus.pkt_size_system.cpu.icache.mem_side::system.l2.cpu_side      8598912                       # Cumulative packet size per connected master and slave (bytes)
system.tol2bus.pkt_size_system.cpu.dcache.mem_side::system.l2.cpu_side      7073292                       # Cumulative packet size per connected master and slave (bytes)
system.tol2bus.pkt_size_system.cpu.itb_walker_cache.mem_side::system.l2.cpu_side      1144960                       # Cumulative packet size per connected master and slave (bytes)
system.tol2bus.pkt_size_system.cpu.dtb_walker_cache.mem_side::system.l2.cpu_side      4441112                       # Cumulative packet size per connected master and slave (bytes)
system.tol2bus.pkt_size::total               21258276                       # Cumulative packet size per connected master and slave (bytes)
system.tol2bus.snoops                           24017                       # Total snoops (count)
system.tol2bus.snoopTraffic                    932224                       # Total snoop traffic (bytes)
system.tol2bus.snoop_fanout::samples           243268                       # Request fanout histogram
system.tol2bus.snoop_fanout::mean            0.129335                       # Request fanout histogram
system.tol2bus.snoop_fanout::stdev           0.348538                       # Request fanout histogram
system.tol2bus.snoop_fanout::underflows             0      0.00%      0.00% # Request fanout histogram
system.tol2bus.snoop_fanout::0                 212884     87.51%     87.51% # Request fanout histogram
system.tol2bus.snoop_fanout::1                  29305     12.05%     99.56% # Request fanout histogram
system.tol2bus.snoop_fanout::2                   1079      0.44%    100.00% # Request fanout histogram
system.tol2bus.snoop_fanout::3                      0      0.00%    100.00% # Request fanout histogram
system.tol2bus.snoop_fanout::4                      0      0.00%    100.00% # Request fanout histogram
system.tol2bus.snoop_fanout::overflows              0      0.00%    100.00% # Request fanout histogram
system.tol2bus.snoop_fanout::min_value              0                       # Request fanout histogram
system.tol2bus.snoop_fanout::max_value              2                       # Request fanout histogram
system.tol2bus.snoop_fanout::total             243268                       # Request fanout histogram
system.tol2bus.reqLayer0.occupancy          341486000                       # Layer occupancy (ticks)
system.tol2bus.reqLayer0.utilization              2.2                       # Layer utilization (%)
system.tol2bus.snoopLayer0.occupancy            41994                       # Layer occupancy (ticks)
system.tol2bus.snoopLayer0.utilization            0.0                       # Layer utilization (%)
system.tol2bus.respLayer0.occupancy         101152500                       # Layer occupancy (ticks)
system.tol2bus.respLayer0.utilization             0.7                       # Layer utilization (%)
system.tol2bus.respLayer1.occupancy         105869000                       # Layer occupancy (ticks)
system.tol2bus.respLayer1.utilization             0.7                       # Layer utilization (%)
system.tol2bus.respLayer2.occupancy          25356000                       # Layer occupancy (ticks)
system.tol2bus.respLayer2.utilization             0.2                       # Layer utilization (%)
system.tol2bus.respLayer3.occupancy         106334000                       # Layer occupancy (ticks)
system.tol2bus.respLayer3.utilization             0.7                       # Layer utilization (%)

---------- End Simulation Statistics   ----------
